<routes>
    <vType id="vtypeauto" accel="2.5" decel="9.0" sigma="0.5" 
	length="4" color="1,0,0" probability="1" carFollowModel="CC" 
	tauEngine="0.5" omegaN="0.2" xi="1" c1="0.5" lanesCount="4"
	ccAccel="1.5" ploegKp="0.2" ploegKd="0.7" ploegH="0.5"
	minGap="0" speedFactor="1000" maxSpeed="1000">
	
		<param key="has.signDetector.device" 			 value="true"/>
		<param key="device.signDetector.range"			 value="50.0"/>
		<param key="device.signDetector.onlyCurrentLane" value="false"/>
	
	</vType>
	
    <route id="platoon_route" edges="edge_0_0 edge_0_1 edge_0_2 edge_0_3 
								     edge_1_0 edge_1_1 edge_1_2 edge_1_3 
								     edge_2_0 edge_2_1 edge_2_2 edge_2_3 
								     edge_3_0 edge_3_1 edge_3_2 edge_3_3 
								     edge_4_0 edge_4_1 edge_4_4 edge_4_6 
								     absorption_4"/>
								    
    <!--<flow id="platoon" route="platoon_route" type="vtypeauto" begin="0" end="10" departLane="0" number="4"/>-->
    <!--<flow id="platoonb" route="platoon_route" type="vtypeauto" begin="4" end="4" departLane="1" departSpeed="max" number="4"/>-->
</routes>
