<routes>

    <vType id="vtypeauto" accel="2.5" decel="9.0" sigma="0.5" 
     length="4" minGap="0" maxSpeed="22" color="1,0,0" 
	 probability="1" speedFactor="1" carFollowModel="IDM" tauEngine="0.5">

		<param key="has.signDetector.device" 	  		 value="true"/>
		<param key="device.signDetector.range"	  		 value="50.0"/>
		<param key="device.signDetector.onlyCurrentLane" value="false"/>

    </vType>

    <route id="myroute" edges="edge_0_0 edge_0_1 edge_0_2 edge_0_3 
							   edge_1_0 edge_1_1 edge_1_2 edge_1_3 
							   edge_2_0 edge_2_1 edge_2_2 edge_2_3 
							   edge_3_0 edge_3_1 edge_3_2 edge_3_3 
							   edge_4_0 edge_4_1 edge_4_4 edge_4_6 
							   absorption_4"/>

    <vehicle type="vtypeauto" id="0" depart="0" departPos="80" route="myroute" />
    <vehicle type="vtypeauto" id="1" depart="0" departPos="70" route="myroute" />
    <vehicle type="vtypeauto" id="2" depart="0" departPos="60" route="myroute" />
    <vehicle type="vtypeauto" id="3" depart="0" departPos="50" route="myroute" />
    <vehicle type="vtypeauto" id="4" depart="0" departPos="40" route="myroute" />
    <vehicle type="vtypeauto" id="5" depart="0" departPos="30" route="myroute" />
    <vehicle type="vtypeauto" id="6" depart="0" departPos="20" route="myroute" />
    <vehicle type="vtypeauto" id="7" depart="0" departPos="10" route="myroute" />

</routes>
