<?xml version="1.0" encoding="UTF-8"?>

<!-- generated on Ter 04 Dez 2018 11:47:52 -02 by Eclipse SUMO netedit Version 619df18
<configuration xmlns:xsi="http://www.w3.org/2001/XMLSchema-instance" xsi:noNamespaceSchemaLocation="http://sumo.dlr.de/xsd/netconvertConfiguration.xsd">

    <input>
        <sumo-net-file value="/home/lauro/Documentos/Masters/Dissertation/Frameworks/plexe/plexe-veins/examples/signs/sumocfg/freeway-sign.net.xml"/>
    </input>

    <output>
        <output-file value="/home/lauro/Documentos/Masters/Dissertation/Frameworks/plexe/plexe-veins/examples/signs/sumocfg/freeway-sign.net.xml"/>
    </output>

    <processing>
        <no-turnarounds value="true"/>
        <offset.disable-normalization value="true"/>
        <lefthand value="false"/>
        <junctions.corner-detail value="0"/>
        <rectangular-lane-cut value="false"/>
        <walkingareas value="false"/>
    </processing>

</configuration>
-->

<net version="0.27" xmlns:xsi="http://www.w3.org/2001/XMLSchema-instance" xsi:noNamespaceSchemaLocation="http://sumo.dlr.de/xsd/net_file.xsd">

    <location netOffset="0.00,254.00" convBoundary="0.00,0.00,50000.00,254.00" origBoundary="0.00,-254.00,50000.00,0.00" projParameter="!"/>

    <edge id=":node_0_1_0" function="internal">
        <lane id=":node_0_1_0_0" index="0" speed="90.11" length="3.28" shape="9398.50,242.80 9401.50,239.60"/>
        <lane id=":node_0_1_0_1" index="1" speed="90.11" length="3.28" shape="9398.50,242.80 9401.50,242.80"/>
        <lane id=":node_0_1_0_2" index="2" speed="90.11" length="3.28" shape="9398.50,246.00 9401.50,246.00"/>
        <lane id=":node_0_1_0_3" index="3" speed="90.11" length="3.28" shape="9398.50,249.20 9401.50,249.20"/>
        <lane id=":node_0_1_0_4" index="4" speed="90.11" length="3.28" shape="9398.50,252.40 9401.50,252.40"/>
    </edge>
    <edge id=":node_0_2_0" function="internal">
        <lane id=":node_0_2_0_0" index="0" speed="57.55" length="3.71" shape="9623.34,239.60 9624.44,239.58 9625.20,239.49 9625.91,239.24 9626.90,238.76"/>
    </edge>
    <edge id=":node_0_2_1" function="internal">
        <lane id=":node_0_2_1_0" index="0" speed="90.11" length="3.76" shape="9623.34,242.80 9627.10,242.80"/>
        <lane id=":node_0_2_1_1" index="1" speed="90.11" length="3.76" shape="9623.34,246.00 9627.10,246.00"/>
        <lane id=":node_0_2_1_2" index="2" speed="90.11" length="3.76" shape="9623.34,249.20 9627.10,249.20"/>
        <lane id=":node_0_2_1_3" index="3" speed="90.11" length="3.76" shape="9623.34,252.40 9627.10,252.40"/>
    </edge>
    <edge id=":node_0_3_0" function="internal">
        <lane id=":node_0_3_0_0" index="0" speed="57.55" length="3.71" shape="9773.10,238.76 9774.09,239.24 9774.80,239.49 9775.56,239.58 9776.66,239.60"/>
    </edge>
    <edge id=":node_0_3_1" function="internal">
        <lane id=":node_0_3_1_0" index="0" speed="90.11" length="3.76" shape="9772.90,242.80 9776.66,242.80"/>
        <lane id=":node_0_3_1_1" index="1" speed="90.11" length="3.76" shape="9772.90,246.00 9776.66,246.00"/>
        <lane id=":node_0_3_1_2" index="2" speed="90.11" length="3.76" shape="9772.90,249.20 9776.66,249.20"/>
        <lane id=":node_0_3_1_3" index="3" speed="90.11" length="3.76" shape="9772.90,252.40 9776.66,252.40"/>
    </edge>
    <edge id=":node_0_4_0" function="internal">
        <lane id=":node_0_4_0_0" index="0" speed="90.11" length="3.00" shape="9998.50,242.80 10001.50,242.80"/>
        <lane id=":node_0_4_0_1" index="1" speed="90.11" length="3.00" shape="9998.50,246.00 10001.50,246.00"/>
        <lane id=":node_0_4_0_2" index="2" speed="90.11" length="3.00" shape="9998.50,249.20 10001.50,249.20"/>
        <lane id=":node_0_4_0_3" index="3" speed="90.11" length="3.00" shape="9998.50,252.40 10001.50,252.40"/>
    </edge>
    <edge id=":node_0_5_0" function="internal">
        <lane id=":node_0_5_0_0" index="0" speed="25.00" length="4.48" shape="9701.60,200.52 9701.74,201.68 9702.16,202.67 9702.85,203.48 9703.83,204.12"/>
    </edge>
    <edge id=":node_0_5_1" function="internal">
        <lane id=":node_0_5_1_0" index="0" speed="25.00" length="2.53" shape="9701.60,200.52 9700.80,201.72 9700.00,202.12 9699.83,202.04"/>
    </edge>
    <edge id=":node_0_5_4" function="internal">
        <lane id=":node_0_5_4_0" index="0" speed="25.00" length="2.15" shape="9699.83,202.04 9699.20,201.72 9698.40,200.52"/>
    </edge>
    <edge id=":node_0_5_2" function="internal">
        <lane id=":node_0_5_2_0" index="0" speed="25.00" length="4.48" shape="9696.17,204.12 9697.15,203.48 9697.84,202.67 9698.26,201.68 9698.40,200.52"/>
    </edge>
    <edge id=":node_0_5_3" function="internal">
        <lane id=":node_0_5_3_0" index="0" speed="25.00" length="4.64" shape="9696.17,204.12 9698.09,203.41 9700.00,203.17 9700.67,203.25"/>
    </edge>
    <edge id=":node_0_5_5" function="internal">
        <lane id=":node_0_5_5_0" index="0" speed="25.00" length="3.30" shape="9700.67,203.25 9701.91,203.41 9703.83,204.12"/>
    </edge>
    <edge id=":node_0_6_0" function="internal">
        <lane id=":node_0_6_0_0" index="0" speed="25.00" length="0.10" shape="9698.40,4.00 9698.40,4.00"/>
    </edge>
    <edge id=":node_0_6_1" function="internal">
        <lane id=":node_0_6_1_0" index="0" speed="25.00" length="2.34" shape="9698.40,4.00 9699.20,2.80 9700.00,2.40"/>
    </edge>
    <edge id=":node_0_6_4" function="internal">
        <lane id=":node_0_6_4_0" index="0" speed="25.00" length="2.34" shape="9700.00,2.40 9700.80,2.80 9701.60,4.00"/>
    </edge>
    <edge id=":node_0_6_2" function="internal">
        <lane id=":node_0_6_2_0" index="0" speed="25.00" length="0.10" shape="9701.60,4.00 9701.60,4.00"/>
    </edge>
    <edge id=":node_0_6_3" function="internal">
        <lane id=":node_0_6_3_0" index="0" speed="25.00" length="2.34" shape="9701.60,4.00 9700.80,5.20 9700.00,5.60"/>
    </edge>
    <edge id=":node_0_6_5" function="internal">
        <lane id=":node_0_6_5_0" index="0" speed="25.00" length="2.34" shape="9700.00,5.60 9699.20,5.20 9698.40,4.00"/>
    </edge>
    <edge id=":node_0_7_0" function="internal">
        <lane id=":node_0_7_0_0" index="0" speed="25.00" length="4.67" shape="9698.40,0.00 9699.20,-1.20 9700.00,-1.60 9700.80,-1.20 9701.60,0.00"/>
    </edge>
    <edge id=":node_1_1_0" function="internal">
        <lane id=":node_1_1_0_0" index="0" speed="90.11" length="3.28" shape="19398.50,242.80 19401.50,239.60"/>
        <lane id=":node_1_1_0_1" index="1" speed="90.11" length="3.28" shape="19398.50,242.80 19401.50,242.80"/>
        <lane id=":node_1_1_0_2" index="2" speed="90.11" length="3.28" shape="19398.50,246.00 19401.50,246.00"/>
        <lane id=":node_1_1_0_3" index="3" speed="90.11" length="3.28" shape="19398.50,249.20 19401.50,249.20"/>
        <lane id=":node_1_1_0_4" index="4" speed="90.11" length="3.28" shape="19398.50,252.40 19401.50,252.40"/>
    </edge>
    <edge id=":node_1_2_0" function="internal">
        <lane id=":node_1_2_0_0" index="0" speed="57.55" length="3.71" shape="19623.34,239.60 19624.44,239.58 19625.20,239.49 19625.91,239.24 19626.90,238.76"/>
    </edge>
    <edge id=":node_1_2_1" function="internal">
        <lane id=":node_1_2_1_0" index="0" speed="90.11" length="3.76" shape="19623.34,242.80 19627.10,242.80"/>
        <lane id=":node_1_2_1_1" index="1" speed="90.11" length="3.76" shape="19623.34,246.00 19627.10,246.00"/>
        <lane id=":node_1_2_1_2" index="2" speed="90.11" length="3.76" shape="19623.34,249.20 19627.10,249.20"/>
        <lane id=":node_1_2_1_3" index="3" speed="90.11" length="3.76" shape="19623.34,252.40 19627.10,252.40"/>
    </edge>
    <edge id=":node_1_3_0" function="internal">
        <lane id=":node_1_3_0_0" index="0" speed="57.55" length="3.71" shape="19773.10,238.76 19774.09,239.24 19774.80,239.49 19775.56,239.58 19776.66,239.60"/>
    </edge>
    <edge id=":node_1_3_1" function="internal">
        <lane id=":node_1_3_1_0" index="0" speed="90.11" length="3.76" shape="19772.90,242.80 19776.66,242.80"/>
        <lane id=":node_1_3_1_1" index="1" speed="90.11" length="3.76" shape="19772.90,246.00 19776.66,246.00"/>
        <lane id=":node_1_3_1_2" index="2" speed="90.11" length="3.76" shape="19772.90,249.20 19776.66,249.20"/>
        <lane id=":node_1_3_1_3" index="3" speed="90.11" length="3.76" shape="19772.90,252.40 19776.66,252.40"/>
    </edge>
    <edge id=":node_1_4_0" function="internal">
        <lane id=":node_1_4_0_0" index="0" speed="90.11" length="3.00" shape="19998.50,242.80 20001.50,242.80"/>
        <lane id=":node_1_4_0_1" index="1" speed="90.11" length="3.00" shape="19998.50,246.00 20001.50,246.00"/>
        <lane id=":node_1_4_0_2" index="2" speed="90.11" length="3.00" shape="19998.50,249.20 20001.50,249.20"/>
        <lane id=":node_1_4_0_3" index="3" speed="90.11" length="3.00" shape="19998.50,252.40 20001.50,252.40"/>
    </edge>
    <edge id=":node_1_5_0" function="internal">
        <lane id=":node_1_5_0_0" index="0" speed="25.00" length="4.48" shape="19701.60,200.52 19701.74,201.68 19702.16,202.67 19702.85,203.48 19703.83,204.12"/>
    </edge>
    <edge id=":node_1_5_1" function="internal">
        <lane id=":node_1_5_1_0" index="0" speed="25.00" length="2.53" shape="19701.60,200.52 19700.80,201.72 19700.00,202.12 19699.83,202.04"/>
    </edge>
    <edge id=":node_1_5_4" function="internal">
        <lane id=":node_1_5_4_0" index="0" speed="25.00" length="2.15" shape="19699.83,202.04 19699.20,201.72 19698.40,200.52"/>
    </edge>
    <edge id=":node_1_5_2" function="internal">
        <lane id=":node_1_5_2_0" index="0" speed="25.00" length="4.48" shape="19696.17,204.12 19697.15,203.48 19697.84,202.67 19698.26,201.68 19698.40,200.52"/>
    </edge>
    <edge id=":node_1_5_3" function="internal">
        <lane id=":node_1_5_3_0" index="0" speed="25.00" length="4.64" shape="19696.17,204.12 19698.09,203.41 19700.00,203.17 19700.67,203.25"/>
    </edge>
    <edge id=":node_1_5_5" function="internal">
        <lane id=":node_1_5_5_0" index="0" speed="25.00" length="3.30" shape="19700.67,203.25 19701.91,203.41 19703.83,204.12"/>
    </edge>
    <edge id=":node_1_6_0" function="internal">
        <lane id=":node_1_6_0_0" index="0" speed="25.00" length="0.10" shape="19698.40,4.00 19698.40,4.00"/>
    </edge>
    <edge id=":node_1_6_1" function="internal">
        <lane id=":node_1_6_1_0" index="0" speed="25.00" length="2.34" shape="19698.40,4.00 19699.20,2.80 19700.00,2.40"/>
    </edge>
    <edge id=":node_1_6_4" function="internal">
        <lane id=":node_1_6_4_0" index="0" speed="25.00" length="2.34" shape="19700.00,2.40 19700.80,2.80 19701.60,4.00"/>
    </edge>
    <edge id=":node_1_6_2" function="internal">
        <lane id=":node_1_6_2_0" index="0" speed="25.00" length="0.10" shape="19701.60,4.00 19701.60,4.00"/>
    </edge>
    <edge id=":node_1_6_3" function="internal">
        <lane id=":node_1_6_3_0" index="0" speed="25.00" length="2.34" shape="19701.60,4.00 19700.80,5.20 19700.00,5.60"/>
    </edge>
    <edge id=":node_1_6_5" function="internal">
        <lane id=":node_1_6_5_0" index="0" speed="25.00" length="2.34" shape="19700.00,5.60 19699.20,5.20 19698.40,4.00"/>
    </edge>
    <edge id=":node_1_7_0" function="internal">
        <lane id=":node_1_7_0_0" index="0" speed="25.00" length="4.67" shape="19698.40,0.00 19699.20,-1.20 19700.00,-1.60 19700.80,-1.20 19701.60,0.00"/>
    </edge>
    <edge id=":node_2_1_0" function="internal">
        <lane id=":node_2_1_0_0" index="0" speed="90.11" length="3.28" shape="29398.50,242.80 29401.50,239.60"/>
        <lane id=":node_2_1_0_1" index="1" speed="90.11" length="3.28" shape="29398.50,242.80 29401.50,242.80"/>
        <lane id=":node_2_1_0_2" index="2" speed="90.11" length="3.28" shape="29398.50,246.00 29401.50,246.00"/>
        <lane id=":node_2_1_0_3" index="3" speed="90.11" length="3.28" shape="29398.50,249.20 29401.50,249.20"/>
        <lane id=":node_2_1_0_4" index="4" speed="90.11" length="3.28" shape="29398.50,252.40 29401.50,252.40"/>
    </edge>
    <edge id=":node_2_2_0" function="internal">
        <lane id=":node_2_2_0_0" index="0" speed="57.55" length="3.71" shape="29623.34,239.60 29624.44,239.58 29625.20,239.49 29625.91,239.24 29626.90,238.76"/>
    </edge>
    <edge id=":node_2_2_1" function="internal">
        <lane id=":node_2_2_1_0" index="0" speed="90.11" length="3.76" shape="29623.34,242.80 29627.10,242.80"/>
        <lane id=":node_2_2_1_1" index="1" speed="90.11" length="3.76" shape="29623.34,246.00 29627.10,246.00"/>
        <lane id=":node_2_2_1_2" index="2" speed="90.11" length="3.76" shape="29623.34,249.20 29627.10,249.20"/>
        <lane id=":node_2_2_1_3" index="3" speed="90.11" length="3.76" shape="29623.34,252.40 29627.10,252.40"/>
    </edge>
    <edge id=":node_2_3_0" function="internal">
        <lane id=":node_2_3_0_0" index="0" speed="57.55" length="3.71" shape="29773.10,238.76 29774.09,239.24 29774.80,239.49 29775.56,239.58 29776.66,239.60"/>
    </edge>
    <edge id=":node_2_3_1" function="internal">
        <lane id=":node_2_3_1_0" index="0" speed="90.11" length="3.76" shape="29772.90,242.80 29776.66,242.80"/>
        <lane id=":node_2_3_1_1" index="1" speed="90.11" length="3.76" shape="29772.90,246.00 29776.66,246.00"/>
        <lane id=":node_2_3_1_2" index="2" speed="90.11" length="3.76" shape="29772.90,249.20 29776.66,249.20"/>
        <lane id=":node_2_3_1_3" index="3" speed="90.11" length="3.76" shape="29772.90,252.40 29776.66,252.40"/>
    </edge>
    <edge id=":node_2_4_0" function="internal">
        <lane id=":node_2_4_0_0" index="0" speed="90.11" length="3.00" shape="29998.50,242.80 30001.50,242.80"/>
        <lane id=":node_2_4_0_1" index="1" speed="90.11" length="3.00" shape="29998.50,246.00 30001.50,246.00"/>
        <lane id=":node_2_4_0_2" index="2" speed="90.11" length="3.00" shape="29998.50,249.20 30001.50,249.20"/>
        <lane id=":node_2_4_0_3" index="3" speed="90.11" length="3.00" shape="29998.50,252.40 30001.50,252.40"/>
    </edge>
    <edge id=":node_2_5_0" function="internal">
        <lane id=":node_2_5_0_0" index="0" speed="25.00" length="4.48" shape="29701.60,200.52 29701.74,201.68 29702.16,202.67 29702.85,203.48 29703.83,204.12"/>
    </edge>
    <edge id=":node_2_5_1" function="internal">
        <lane id=":node_2_5_1_0" index="0" speed="25.00" length="2.53" shape="29701.60,200.52 29700.80,201.72 29700.00,202.12 29699.83,202.04"/>
    </edge>
    <edge id=":node_2_5_4" function="internal">
        <lane id=":node_2_5_4_0" index="0" speed="25.00" length="2.15" shape="29699.83,202.04 29699.20,201.72 29698.40,200.52"/>
    </edge>
    <edge id=":node_2_5_2" function="internal">
        <lane id=":node_2_5_2_0" index="0" speed="25.00" length="4.48" shape="29696.17,204.12 29697.15,203.48 29697.84,202.67 29698.26,201.68 29698.40,200.52"/>
    </edge>
    <edge id=":node_2_5_3" function="internal">
        <lane id=":node_2_5_3_0" index="0" speed="25.00" length="4.64" shape="29696.17,204.12 29698.09,203.41 29700.00,203.17 29700.67,203.25"/>
    </edge>
    <edge id=":node_2_5_5" function="internal">
        <lane id=":node_2_5_5_0" index="0" speed="25.00" length="3.30" shape="29700.67,203.25 29701.91,203.41 29703.83,204.12"/>
    </edge>
    <edge id=":node_2_6_0" function="internal">
        <lane id=":node_2_6_0_0" index="0" speed="25.00" length="0.10" shape="29698.40,4.00 29698.40,4.00"/>
    </edge>
    <edge id=":node_2_6_1" function="internal">
        <lane id=":node_2_6_1_0" index="0" speed="25.00" length="2.34" shape="29698.40,4.00 29699.20,2.80 29700.00,2.40"/>
    </edge>
    <edge id=":node_2_6_4" function="internal">
        <lane id=":node_2_6_4_0" index="0" speed="25.00" length="2.34" shape="29700.00,2.40 29700.80,2.80 29701.60,4.00"/>
    </edge>
    <edge id=":node_2_6_2" function="internal">
        <lane id=":node_2_6_2_0" index="0" speed="25.00" length="0.10" shape="29701.60,4.00 29701.60,4.00"/>
    </edge>
    <edge id=":node_2_6_3" function="internal">
        <lane id=":node_2_6_3_0" index="0" speed="25.00" length="2.34" shape="29701.60,4.00 29700.80,5.20 29700.00,5.60"/>
    </edge>
    <edge id=":node_2_6_5" function="internal">
        <lane id=":node_2_6_5_0" index="0" speed="25.00" length="2.34" shape="29700.00,5.60 29699.20,5.20 29698.40,4.00"/>
    </edge>
    <edge id=":node_2_7_0" function="internal">
        <lane id=":node_2_7_0_0" index="0" speed="25.00" length="4.67" shape="29698.40,0.00 29699.20,-1.20 29700.00,-1.60 29700.80,-1.20 29701.60,0.00"/>
    </edge>
    <edge id=":node_3_1_0" function="internal">
        <lane id=":node_3_1_0_0" index="0" speed="90.11" length="3.28" shape="39398.50,242.80 39401.50,239.60"/>
        <lane id=":node_3_1_0_1" index="1" speed="90.11" length="3.28" shape="39398.50,242.80 39401.50,242.80"/>
        <lane id=":node_3_1_0_2" index="2" speed="90.11" length="3.28" shape="39398.50,246.00 39401.50,246.00"/>
        <lane id=":node_3_1_0_3" index="3" speed="90.11" length="3.28" shape="39398.50,249.20 39401.50,249.20"/>
        <lane id=":node_3_1_0_4" index="4" speed="90.11" length="3.28" shape="39398.50,252.40 39401.50,252.40"/>
    </edge>
    <edge id=":node_3_2_0" function="internal">
        <lane id=":node_3_2_0_0" index="0" speed="57.55" length="3.71" shape="39623.34,239.60 39624.44,239.58 39625.20,239.49 39625.91,239.24 39626.90,238.76"/>
    </edge>
    <edge id=":node_3_2_1" function="internal">
        <lane id=":node_3_2_1_0" index="0" speed="90.11" length="3.76" shape="39623.34,242.80 39627.10,242.80"/>
        <lane id=":node_3_2_1_1" index="1" speed="90.11" length="3.76" shape="39623.34,246.00 39627.10,246.00"/>
        <lane id=":node_3_2_1_2" index="2" speed="90.11" length="3.76" shape="39623.34,249.20 39627.10,249.20"/>
        <lane id=":node_3_2_1_3" index="3" speed="90.11" length="3.76" shape="39623.34,252.40 39627.10,252.40"/>
    </edge>
    <edge id=":node_3_3_0" function="internal">
        <lane id=":node_3_3_0_0" index="0" speed="57.55" length="3.71" shape="39773.10,238.76 39774.09,239.24 39774.80,239.49 39775.56,239.58 39776.66,239.60"/>
    </edge>
    <edge id=":node_3_3_1" function="internal">
        <lane id=":node_3_3_1_0" index="0" speed="90.11" length="3.76" shape="39772.90,242.80 39776.66,242.80"/>
        <lane id=":node_3_3_1_1" index="1" speed="90.11" length="3.76" shape="39772.90,246.00 39776.66,246.00"/>
        <lane id=":node_3_3_1_2" index="2" speed="90.11" length="3.76" shape="39772.90,249.20 39776.66,249.20"/>
        <lane id=":node_3_3_1_3" index="3" speed="90.11" length="3.76" shape="39772.90,252.40 39776.66,252.40"/>
    </edge>
    <edge id=":node_3_4_0" function="internal">
        <lane id=":node_3_4_0_0" index="0" speed="90.11" length="3.00" shape="39998.50,242.80 40001.50,242.80"/>
        <lane id=":node_3_4_0_1" index="1" speed="90.11" length="3.00" shape="39998.50,246.00 40001.50,246.00"/>
        <lane id=":node_3_4_0_2" index="2" speed="90.11" length="3.00" shape="39998.50,249.20 40001.50,249.20"/>
        <lane id=":node_3_4_0_3" index="3" speed="90.11" length="3.00" shape="39998.50,252.40 40001.50,252.40"/>
    </edge>
    <edge id=":node_3_5_0" function="internal">
        <lane id=":node_3_5_0_0" index="0" speed="25.00" length="4.48" shape="39701.60,200.52 39701.74,201.68 39702.16,202.67 39702.85,203.48 39703.83,204.12"/>
    </edge>
    <edge id=":node_3_5_1" function="internal">
        <lane id=":node_3_5_1_0" index="0" speed="25.00" length="2.53" shape="39701.60,200.52 39700.80,201.72 39700.00,202.12 39699.83,202.04"/>
    </edge>
    <edge id=":node_3_5_4" function="internal">
        <lane id=":node_3_5_4_0" index="0" speed="25.00" length="2.15" shape="39699.83,202.04 39699.20,201.72 39698.40,200.52"/>
    </edge>
    <edge id=":node_3_5_2" function="internal">
        <lane id=":node_3_5_2_0" index="0" speed="25.00" length="4.48" shape="39696.17,204.12 39697.15,203.48 39697.84,202.67 39698.26,201.68 39698.40,200.52"/>
    </edge>
    <edge id=":node_3_5_3" function="internal">
        <lane id=":node_3_5_3_0" index="0" speed="25.00" length="4.64" shape="39696.17,204.12 39698.09,203.41 39700.00,203.17 39700.67,203.25"/>
    </edge>
    <edge id=":node_3_5_5" function="internal">
        <lane id=":node_3_5_5_0" index="0" speed="25.00" length="3.30" shape="39700.67,203.25 39701.91,203.41 39703.83,204.12"/>
    </edge>
    <edge id=":node_3_6_0" function="internal">
        <lane id=":node_3_6_0_0" index="0" speed="25.00" length="0.10" shape="39698.40,4.00 39698.40,4.00"/>
    </edge>
    <edge id=":node_3_6_1" function="internal">
        <lane id=":node_3_6_1_0" index="0" speed="25.00" length="2.34" shape="39698.40,4.00 39699.20,2.80 39700.00,2.40"/>
    </edge>
    <edge id=":node_3_6_4" function="internal">
        <lane id=":node_3_6_4_0" index="0" speed="25.00" length="2.34" shape="39700.00,2.40 39700.80,2.80 39701.60,4.00"/>
    </edge>
    <edge id=":node_3_6_2" function="internal">
        <lane id=":node_3_6_2_0" index="0" speed="25.00" length="0.10" shape="39701.60,4.00 39701.60,4.00"/>
    </edge>
    <edge id=":node_3_6_3" function="internal">
        <lane id=":node_3_6_3_0" index="0" speed="25.00" length="2.34" shape="39701.60,4.00 39700.80,5.20 39700.00,5.60"/>
    </edge>
    <edge id=":node_3_6_5" function="internal">
        <lane id=":node_3_6_5_0" index="0" speed="25.00" length="2.34" shape="39700.00,5.60 39699.20,5.20 39698.40,4.00"/>
    </edge>
    <edge id=":node_3_7_0" function="internal">
        <lane id=":node_3_7_0_0" index="0" speed="25.00" length="4.67" shape="39698.40,0.00 39699.20,-1.20 39700.00,-1.60 39700.80,-1.20 39701.60,0.00"/>
    </edge>
    <edge id=":node_4_1_0" function="internal">
        <lane id=":node_4_1_0_0" index="0" speed="90.11" length="3.28" shape="49398.50,242.80 49401.50,239.60"/>
        <lane id=":node_4_1_0_1" index="1" speed="90.11" length="3.28" shape="49398.50,242.80 49401.50,242.80"/>
        <lane id=":node_4_1_0_2" index="2" speed="90.11" length="3.28" shape="49398.50,246.00 49401.50,246.00"/>
        <lane id=":node_4_1_0_3" index="3" speed="90.11" length="3.28" shape="49398.50,249.20 49401.50,249.20"/>
        <lane id=":node_4_1_0_4" index="4" speed="90.11" length="3.28" shape="49398.50,252.40 49401.50,252.40"/>
    </edge>
    <edge id=":node_4_2_0" function="internal">
        <lane id=":node_4_2_0_0" index="0" speed="57.55" length="3.71" shape="49623.34,239.60 49624.44,239.58 49625.20,239.49 49625.91,239.24 49626.90,238.76"/>
    </edge>
    <edge id=":node_4_2_1" function="internal">
        <lane id=":node_4_2_1_0" index="0" speed="90.11" length="3.76" shape="49623.34,242.80 49627.10,242.80"/>
        <lane id=":node_4_2_1_1" index="1" speed="90.11" length="3.76" shape="49623.34,246.00 49627.10,246.00"/>
        <lane id=":node_4_2_1_2" index="2" speed="90.11" length="3.76" shape="49623.34,249.20 49627.10,249.20"/>
        <lane id=":node_4_2_1_3" index="3" speed="90.11" length="3.76" shape="49623.34,252.40 49627.10,252.40"/>
    </edge>
    <edge id=":node_4_3_0" function="internal">
        <lane id=":node_4_3_0_0" index="0" speed="57.55" length="3.71" shape="49773.10,238.76 49774.09,239.24 49774.80,239.49 49775.56,239.58 49776.66,239.60"/>
    </edge>
    <edge id=":node_4_3_1" function="internal">
        <lane id=":node_4_3_1_0" index="0" speed="90.11" length="3.76" shape="49772.90,242.80 49776.66,242.80"/>
        <lane id=":node_4_3_1_1" index="1" speed="90.11" length="3.76" shape="49772.90,246.00 49776.66,246.00"/>
        <lane id=":node_4_3_1_2" index="2" speed="90.11" length="3.76" shape="49772.90,249.20 49776.66,249.20"/>
        <lane id=":node_4_3_1_3" index="3" speed="90.11" length="3.76" shape="49772.90,252.40 49776.66,252.40"/>
    </edge>
    <edge id=":node_4_5_0" function="internal">
        <lane id=":node_4_5_0_0" index="0" speed="25.00" length="4.48" shape="49701.60,200.52 49701.74,201.68 49702.16,202.67 49702.85,203.48 49703.83,204.12"/>
    </edge>
    <edge id=":node_4_5_1" function="internal">
        <lane id=":node_4_5_1_0" index="0" speed="25.00" length="2.53" shape="49701.60,200.52 49700.80,201.72 49700.00,202.12 49699.83,202.04"/>
    </edge>
    <edge id=":node_4_5_4" function="internal">
        <lane id=":node_4_5_4_0" index="0" speed="25.00" length="2.15" shape="49699.83,202.04 49699.20,201.72 49698.40,200.52"/>
    </edge>
    <edge id=":node_4_5_2" function="internal">
        <lane id=":node_4_5_2_0" index="0" speed="25.00" length="4.48" shape="49696.17,204.12 49697.15,203.48 49697.84,202.67 49698.26,201.68 49698.40,200.52"/>
    </edge>
    <edge id=":node_4_5_3" function="internal">
        <lane id=":node_4_5_3_0" index="0" speed="25.00" length="4.64" shape="49696.17,204.12 49698.09,203.41 49700.00,203.17 49700.67,203.25"/>
    </edge>
    <edge id=":node_4_5_5" function="internal">
        <lane id=":node_4_5_5_0" index="0" speed="25.00" length="3.30" shape="49700.67,203.25 49701.91,203.41 49703.83,204.12"/>
    </edge>
    <edge id=":node_4_6_0" function="internal">
        <lane id=":node_4_6_0_0" index="0" speed="25.00" length="0.10" shape="49698.40,4.00 49698.40,4.00"/>
    </edge>
    <edge id=":node_4_6_1" function="internal">
        <lane id=":node_4_6_1_0" index="0" speed="25.00" length="2.34" shape="49698.40,4.00 49699.20,2.80 49700.00,2.40"/>
    </edge>
    <edge id=":node_4_6_4" function="internal">
        <lane id=":node_4_6_4_0" index="0" speed="25.00" length="2.34" shape="49700.00,2.40 49700.80,2.80 49701.60,4.00"/>
    </edge>
    <edge id=":node_4_6_2" function="internal">
        <lane id=":node_4_6_2_0" index="0" speed="25.00" length="0.10" shape="49701.60,4.00 49701.60,4.00"/>
    </edge>
    <edge id=":node_4_6_3" function="internal">
        <lane id=":node_4_6_3_0" index="0" speed="25.00" length="2.34" shape="49701.60,4.00 49700.80,5.20 49700.00,5.60"/>
    </edge>
    <edge id=":node_4_6_5" function="internal">
        <lane id=":node_4_6_5_0" index="0" speed="25.00" length="2.34" shape="49700.00,5.60 49699.20,5.20 49698.40,4.00"/>
    </edge>
    <edge id=":node_4_7_0" function="internal">
        <lane id=":node_4_7_0_0" index="0" speed="25.00" length="4.67" shape="49698.40,0.00 49699.20,-1.20 49700.00,-1.60 49700.80,-1.20 49701.60,0.00"/>
    </edge>

    <edge id="absorption_0" from="node_0_6" to="node_0_7" priority="7">
        <lane id="absorption_0_0" index="0" speed="25.00" length="4.00" shape="9698.40,4.00 9698.40,0.00"/>
    </edge>
    <edge id="absorption_1" from="node_1_6" to="node_1_7" priority="7">
        <lane id="absorption_1_0" index="0" speed="25.00" length="4.00" shape="19698.40,4.00 19698.40,0.00"/>
    </edge>
    <edge id="absorption_2" from="node_2_6" to="node_2_7" priority="7">
        <lane id="absorption_2_0" index="0" speed="25.00" length="4.00" shape="29698.40,4.00 29698.40,0.00"/>
    </edge>
    <edge id="absorption_3" from="node_3_6" to="node_3_7" priority="7">
        <lane id="absorption_3_0" index="0" speed="25.00" length="4.00" shape="39698.40,4.00 39698.40,0.00"/>
    </edge>
    <edge id="absorption_4" from="node_4_6" to="node_4_7" priority="7">
        <lane id="absorption_4_0" index="0" speed="25.00" length="4.00" shape="49698.40,4.00 49698.40,0.00"/>
    </edge>
    <edge id="edge_0_0" from="node_0_0" to="node_0_1" priority="7">
        <lane id="edge_0_0_0" index="0" speed="90.11" length="9398.50" shape="0.00,242.80 9398.50,242.80"/>
        <lane id="edge_0_0_1" index="1" speed="90.11" length="9398.50" shape="0.00,246.00 9398.50,246.00"/>
        <lane id="edge_0_0_2" index="2" speed="90.11" length="9398.50" shape="0.00,249.20 9398.50,249.20"/>
        <lane id="edge_0_0_3" index="3" speed="90.11" length="9398.50" shape="0.00,252.40 9398.50,252.40"/>
    </edge>
    <edge id="edge_0_1" from="node_0_1" to="node_0_2" priority="7">
        <lane id="edge_0_1_0" index="0" speed="90.11" length="221.84" shape="9401.50,239.60 9623.34,239.60"/>
        <lane id="edge_0_1_1" index="1" speed="90.11" length="221.84" shape="9401.50,242.80 9623.34,242.80"/>
        <lane id="edge_0_1_2" index="2" speed="90.11" length="221.84" shape="9401.50,246.00 9623.34,246.00"/>
        <lane id="edge_0_1_3" index="3" speed="90.11" length="221.84" shape="9401.50,249.20 9623.34,249.20"/>
        <lane id="edge_0_1_4" index="4" speed="90.11" length="221.84" shape="9401.50,252.40 9623.34,252.40"/>
    </edge>
    <edge id="edge_0_2" from="node_0_2" to="node_0_3" priority="7">
        <lane id="edge_0_2_0" index="0" speed="90.11" length="145.80" shape="9627.10,242.80 9772.90,242.80"/>
        <lane id="edge_0_2_1" index="1" speed="90.11" length="145.80" shape="9627.10,246.00 9772.90,246.00"/>
        <lane id="edge_0_2_2" index="2" speed="90.11" length="145.80" shape="9627.10,249.20 9772.90,249.20"/>
        <lane id="edge_0_2_3" index="3" speed="90.11" length="145.80" shape="9627.10,252.40 9772.90,252.40"/>
    </edge>
    <edge id="edge_0_3" from="node_0_3" to="node_0_4" priority="7">
        <lane id="edge_0_3_0" index="0" speed="90.11" length="221.84" shape="9776.66,239.60 9998.50,239.60"/>
        <lane id="edge_0_3_1" index="1" speed="90.11" length="221.84" shape="9776.66,242.80 9998.50,242.80"/>
        <lane id="edge_0_3_2" index="2" speed="90.11" length="221.84" shape="9776.66,246.00 9998.50,246.00"/>
        <lane id="edge_0_3_3" index="3" speed="90.11" length="221.84" shape="9776.66,249.20 9998.50,249.20"/>
        <lane id="edge_0_3_4" index="4" speed="90.11" length="221.84" shape="9776.66,252.40 9998.50,252.40"/>
    </edge>
    <edge id="edge_0_4" from="node_0_2" to="node_0_5" priority="7">
        <lane id="edge_0_4_0" index="0" speed="25.00" length="77.45" shape="9626.90,238.76 9696.17,204.12"/>
    </edge>
    <edge id="edge_0_5" from="node_0_5" to="node_0_3" priority="7">
        <lane id="edge_0_5_0" index="0" speed="25.00" length="77.45" shape="9703.83,204.12 9773.10,238.76"/>
    </edge>
    <edge id="edge_0_6" from="node_0_5" to="node_0_6" priority="7">